Circuit: * D:\AC_assignment\pe\pe_submission\rectifier\3_phase_FWR_work.asc

Direct Newton iteration for .op point succeeded.
Heightened Def Con from 1e-005 to 1.00011e-005
Heightened Def Con from 0.01001 to 0.01001
Heightened Def Con from 0.01334 to 0.01334
Heightened Def Con from 0.0167 to 0.0167
Heightened Def Con from 0.04334 to 0.04334
Heightened Def Con from 0.0467 to 0.0467

Date: Wed May 01 22:40:52 2024
Total elapsed time: 1.783 seconds.

tnom = 27
temp = 27
method = modified trap
totiter = 102335
traniter = 102326
tranpoints = 26579
accept = 20674
rejected = 5911
matrix size = 170
fillins = 125
solver = Normal
Thread vector: 8.6/5.0[4] 2.2/1.5[4] 5.3/3.0[4] 0.4/1.9[1]  2592/500
Matrix Compiler1: 11.30 KB object code size  2.2/1.3/[0.6]
Matrix Compiler2: 13.23 KB object code size  0.8/1.8/[0.5]

