Circuit: * D:\AC_assignment\pe\pe_submission\rectifier\3phase_full_wave_rectifier_diodes.asc

Direct Newton iteration for .op point succeeded.

Date: Wed May 01 22:38:15 2024
Total elapsed time: 0.235 seconds.

tnom = 27
temp = 27
method = modified trap
totiter = 46852
traniter = 46840
tranpoints = 13988
accept = 9715
rejected = 4273
matrix size = 14
fillins = 0
solver = Normal
Matrix Compiler1: 528 bytes object code size  0.1/0.1/[0.0]
Matrix Compiler2: off  [0.1]/0.1/0.1

